243
Properties=species:S:1:pos:R:3 C60-Ih=T pbc="F F F"
C        2.16650000       0.59060000       2.58740000
C        3.03780000       0.17660000       1.59180000
C        1.27860000      -0.30980000       3.16790000
C        3.01180000      -1.14340000       1.16540000
C        3.10340000      -1.43350000      -0.19300000
C        3.15030000       1.21060000       0.66820000
C        3.24280000       0.91490000      -0.68590000
C        3.21920000      -0.40230000      -1.12070000
C       -0.43930000       1.35270000       3.12710000
C        0.43630000       2.26180000       2.55420000
C       -0.02960000       0.06330000       3.43790000
C        1.74420000       1.87900000       2.28300000
C        2.35190000       2.26760000       1.09900000
C       -0.26330000       3.02680000       1.63260000
C        0.33740000       3.40540000       0.43730000
C        1.65160000       3.02780000       0.17070000
C       -2.09030000      -0.82250000       2.59550000
C       -2.51110000       0.46640000       2.28540000
C       -0.84490000      -1.02520000       3.17380000
C       -1.68740000       1.55330000       2.55120000
C       -1.58430000       2.58580000       1.63190000
C       -3.23140000       0.40610000       1.10070000
C       -3.12270000       1.44100000       0.17460000
C       -2.29470000       2.52910000       0.43990000
C       -0.49080000      -2.91330000       1.73650000
C       -1.74300000      -2.71240000       1.16370000
C       -0.03930000      -2.06840000       2.74530000
C       -2.54860000      -1.66500000       1.59420000
C       -3.26020000      -0.91410000       0.67010000
C       -1.65430000      -3.00610000      -0.18970000
C       -2.35420000      -2.24390000      -1.11700000
C       -3.16430000      -1.19490000      -0.68780000
C        2.13640000      -2.05530000       1.73580000
C        1.68950000      -2.90090000       0.72930000
C        1.27850000      -1.63660000       2.74350000
C        0.36780000      -3.33270000       0.73020000
C       -0.34400000      -3.39040000      -0.45940000
C        2.28890000      -2.52500000      -0.46400000
C        1.57900000      -2.57180000      -1.65800000
C        0.25600000      -3.00540000      -1.65310000
C       -2.18280000      -0.57830000      -2.59790000
C       -1.74800000      -1.86940000      -2.30830000
C       -0.43850000      -2.24690000      -2.58450000
C       -1.28150000       0.31890000      -3.16710000
C       -2.15260000       2.05450000      -1.73780000
C       -3.04850000       1.15350000      -1.18110000
C       -3.06560000      -0.16290000      -1.61070000
C       -1.26610000       1.64070000      -2.72710000
C        0.50390000       2.93610000      -1.74180000
C       -0.37880000       3.35610000      -0.75130000
C       -1.69430000       2.91860000      -0.74910000
C        0.05210000       2.07300000      -2.73550000
C        2.09760000       0.83400000      -2.60510000
C        2.55170000       1.69230000      -1.61070000
C        1.75890000       2.74520000      -1.18240000
C        0.84200000       1.02060000      -3.17860000
C        0.44610000      -1.34950000      -3.16610000
C        1.69830000      -1.54850000      -2.59080000
C        2.51840000      -0.46230000      -2.31710000
C        0.02180000      -0.06450000      -3.45850000
C        5.94060000       0.59650000      -0.41930000
C        5.93570000      -0.73530000      -0.16200000
C        5.66630000      -1.38200000      -1.32280000
C        5.50750000      -0.45190000      -2.29460000
C        5.67810000       0.77110000      -1.73860000
C        2.83010000       5.12760000       1.23450000
C        3.83470000       4.56120000       0.52130000
C        3.57290000       4.73550000      -0.79620000
C        2.39920000       5.40580000      -0.89720000
C        1.94210000       5.65200000       0.35430000
C        3.37000000      -0.17130000       4.94290000
C        4.38070000       0.08380000       4.07510000
C        4.38280000       1.41520000       3.81810000
C        3.37330000       1.97720000       4.52830000
C        2.75020000       0.99860000       5.22730000
C        2.37120000      -5.36250000       1.18010000
C        3.54640000      -4.70310000       1.03000000
C        3.81640000      -4.05840000       2.19080000
C        2.80660000      -4.31830000       3.05820000
C        1.91470000      -5.12670000       2.43360000
C        1.21740000      -3.27530000      -4.86340000
C        2.49140000      -3.19300000      -4.40510000
C        2.65450000      -4.12300000      -3.43440000
C        1.47620000      -4.77650000      -3.28620000
C        0.59020000      -4.25790000      -4.16960000
C        1.49520000       3.20730000      -4.82930000
C        2.66790000       2.53390000      -4.72220000
C        2.50350000       1.31170000      -5.28280000
C        1.22700000       1.23160000      -5.73180000
C        0.60550000       2.40280000      -5.45710000
C       -5.93570000      -0.59440000       0.42270000
C       -5.67490000      -0.76940000       1.74010000
C       -5.50630000       0.45710000       2.29310000
C       -5.66940000       1.38700000       1.32150000
C       -5.93590000       0.73720000       0.16170000
C       -1.94110000      -5.64480000      -0.34860000
C       -2.40080000      -5.40690000       0.90320000
C       -3.57220000      -4.73310000       0.79580000
C       -3.83120000      -4.55720000      -0.52420000
C       -2.82610000      -5.12390000      -1.23370000
C       -0.60830000      -2.40370000       5.45100000
C       -1.22900000      -1.22950000       5.72670000
C       -2.50360000      -1.31650000       5.27460000
C       -2.66790000      -2.54160000       4.72150000
C       -1.49840000      -3.21580000       4.83180000
C       -0.59120000       4.25700000       4.16640000
C       -1.47730000       4.78080000       3.28550000
C       -2.65030000       4.11680000       3.43640000
C       -2.48640000       3.19020000       4.41060000
C       -1.21440000       3.27630000       4.86590000
C       -1.91330000       5.12020000      -2.42570000
C       -2.80240000       4.31240000      -3.05500000
C       -3.81120000       4.05680000      -2.18500000
C       -3.54830000       4.70870000      -1.02640000
C       -2.37370000       5.36730000      -1.17590000
C       -2.75150000      -1.00080000      -5.22350000
C       -3.37950000      -1.97970000      -4.52910000
C       -4.38810000      -1.41580000      -3.82380000
C       -4.38430000      -0.08480000      -4.08200000
C       -3.37290000       0.17320000      -4.94870000
C        5.57710000       1.08350000       1.83600000
C        4.43850000       3.23390000       2.34680000
C        5.28420000       2.79100000       0.04890000
C        4.93750000       1.97320000       2.71950000
C        5.74720000       1.54940000       0.51980000
C        4.65680000       3.60500000       1.00830000
C        5.57430000      -0.34890000       2.11230000
C        4.42640000      -2.15060000       3.39110000
C        5.26880000      -2.59390000       1.09270000
C        4.93250000      -0.84460000       3.26330000
C        5.74000000      -1.27030000       1.06310000
C        4.64190000      -2.99270000       2.28460000
C        4.98110000      -3.29150000      -0.15470000
C        3.34730000      -4.77230000      -1.30340000
C        4.49930000      -2.97310000      -2.57300000
C        4.07280000      -4.36590000      -0.16980000
C        5.17630000      -2.64090000      -1.38770000
C        3.61360000      -4.06120000      -2.48620000
C        4.32560000      -1.97330000      -3.62020000
C        2.69660000      -1.01610000      -5.23840000
C        4.33340000       0.46670000      -4.09490000
C        3.26990000      -2.09560000      -4.54410000
C        4.83730000      -0.67480000      -3.44870000
C        3.27860000       0.24260000      -4.99800000
C        5.00110000       2.97520000      -1.36880000
C        3.37090000       3.93170000      -2.98480000
C        4.51340000       1.78380000      -3.49510000
C        4.09730000       3.97270000      -1.78120000
C        5.19190000       1.91430000      -2.27160000
C        3.63030000       2.82940000      -3.81860000
C        3.35530000       3.83830000       3.11290000
C        1.50250000       3.36900000       4.70820000
C        1.20710000       5.07450000       2.91980000
C        2.80700000       3.16710000       4.22090000
C        2.52450000       4.80090000       2.51020000
C        0.75140000       4.35030000       4.03430000
C        0.26130000       5.69300000      -1.79430000
C       -0.22800000       4.50100000      -3.92490000
C        2.11060000       4.65470000      -3.09810000
C       -0.61880000       5.24320000      -2.79750000
C        1.62070000       5.39090000      -2.00420000
C        1.15220000       4.25230000      -4.04230000
C        0.25520000       5.63800000       1.96900000
C       -2.08430000       5.48330000       1.14000000
C       -0.23060000       5.95560000      -0.44780000
C       -1.12660000       5.45600000       2.16810000
C        0.64870000       5.90900000       0.64650000
C       -1.59020000       5.76060000      -0.14830000
C        3.34110000      -2.42890000       4.32250000
C        1.18430000      -3.63500000       4.60310000
C        1.49470000      -1.38840000       5.62330000
C        2.50300000      -3.54070000       4.12210000
C        2.79910000      -1.38800000       5.09960000
C        0.73410000      -2.54270000       5.36710000
C        0.82690000      -0.12770000       5.92340000
C       -1.32370000       1.10600000       5.72560000
C        0.83250000       2.31330000       5.45590000
C       -0.57910000      -0.06470000       5.95260000
C        1.48580000       1.09320000       5.69450000
C       -0.57150000       2.27530000       5.50530000
C        2.08400000      -5.47980000      -1.13790000
C       -0.25530000      -5.63370000      -1.96610000
C        0.23070000      -5.95420000       0.45400000
C        1.12480000      -5.45150000      -2.16760000
C        1.58950000      -5.75730000       0.14900000
C       -0.64750000      -5.90410000      -0.64310000
C       -0.26090000      -5.69470000       1.80130000
C       -2.11070000      -4.65830000       3.10220000
C        0.22940000      -4.50830000       3.93000000
C       -1.62110000      -5.39420000       2.00760000
C        0.62070000      -5.25020000       2.80300000
C       -1.14910000      -4.25880000       4.04770000
C        1.32480000      -1.10600000      -5.72510000
C       -0.82670000       0.12640000      -5.92430000
C       -0.83270000      -2.31670000      -5.45360000
C        0.57880000       0.06580000      -5.95410000
C        0.57250000      -2.27350000      -5.50360000
C       -1.48540000      -1.09440000      -5.69230000
C       -1.20610000      -5.07110000      -2.91790000
C       -3.35630000      -3.83580000      -3.11560000
C       -1.50400000      -3.37190000      -4.70700000
C       -2.52500000      -4.79620000      -2.51020000
C       -0.75120000      -4.34940000      -4.03600000
C       -2.80860000      -3.16690000      -4.22480000
C       -1.18410000       3.63010000      -4.59950000
C       -3.34400000       2.42360000      -4.32360000
C       -1.49450000       1.38780000      -5.62530000
C       -2.50400000       3.53340000      -4.11940000
C       -0.73450000       2.54190000      -5.36800000
C       -2.79830000       1.38680000      -5.10360000
C       -5.28210000      -2.78640000      -0.04890000
C       -4.43990000      -3.22970000      -2.34990000
C       -5.58160000      -1.08230000      -1.83860000
C       -4.65460000      -3.60040000      -1.01090000
C       -5.74710000      -1.54440000      -0.52180000
C       -4.94350000      -1.96950000      -2.72300000
C       -4.99750000      -2.97540000       1.36780000
C       -3.37150000      -3.93370000       2.98690000
C       -4.51240000      -1.78380000       3.49440000
C       -4.09640000      -3.97220000       1.78180000
C       -5.18950000      -1.91320000       2.27080000
C       -3.63200000      -2.83060000       3.81940000
C       -4.33190000      -0.46660000       4.09240000
C       -2.69540000       1.01560000       5.23780000
C       -4.32420000       1.97410000       3.62040000
C       -3.27600000      -0.24160000       4.99570000
C       -4.83560000       0.67700000       3.44730000
C       -3.27010000       2.09710000       4.54330000
C       -4.49720000       2.97340000       2.57230000
C       -3.34830000       4.77430000       1.30130000
C       -4.98450000       3.29150000       0.15260000
C       -3.60960000       4.06190000       2.48420000
C       -5.17700000       2.64390000       1.38570000
C       -4.07750000       4.36590000       0.16870000
C       -5.26910000       2.59410000      -1.09490000
C       -4.42920000       2.14530000      -3.39250000
C       -5.57870000       0.34880000      -2.11590000
C       -4.63860000       2.99100000      -2.28840000
C       -5.74200000       1.26840000      -1.06660000
C       -4.93810000       0.84050000      -3.26730000
O        0.00000000       0.00000000       0.11926200
H        0.00000000       0.76323900      -0.47704700
H        0.00000000      -0.76323900      -0.47704700
